/*--------------------------------*- C++ -*----------------------------------*\
  =========                 |
  \\      /  F ield         | OpenFOAM: The Open Source CFD Toolbox
   \\    /   O peration     | Website:  https://openfoam.org
    \\  /    A nd           | Version:  13
     \\/     M anipulation  |
\*---------------------------------------------------------------------------*/
FoamFile
{
    format      ascii;
    class       dictionary;
    object      controlDict;
}
// * * * * * * * * * * * * * * * * * * * * * * * * * * * * * * * * * * * * * //

regionSolvers
{
    gas             fluid;
    solid           solid;
}

//startFrom       startTime;
startFrom      latestTime;

startTime       0;

stopAt          endTime;
//stopAt          writeNow;
//stopAt          nextWrite;

endTime         1.5;

deltaT          0.005;

writeControl    adjustableRunTime;

writeInterval   0.02;

purgeWrite      0;

writeFormat     ascii;

writePrecision  8;

writeCompression off;

timeFormat      general;

timePrecision   6;

runTimeModifiable true;

adjustTimeStep  no;

maxCo           5;

maxDeltaT       1;

// ************************************************************************* //
